Version 4.1
SHEET 1 1300 680
WIRE -1200 -160 -1232 -160
WIRE -1056 -160 -1120 -160
WIRE -224 -160 -256 -160
WIRE -80 -160 -144 -160
WIRE -1232 -112 -1232 -160
WIRE -256 -112 -256 -160
WIRE -1056 -96 -1056 -160
WIRE -80 -96 -80 -160
WIRE -1056 48 -1056 -16
WIRE -1008 48 -1056 48
WIRE -880 48 -928 48
WIRE -752 48 -880 48
WIRE -80 48 -80 -16
WIRE -32 48 -80 48
WIRE 96 48 48 48
WIRE 224 48 96 48
WIRE -1056 128 -1056 48
WIRE -80 128 -80 48
WIRE -1104 144 -1280 144
WIRE -880 144 -880 48
WIRE -128 144 -304 144
WIRE 96 144 96 48
WIRE -1280 176 -1280 144
WIRE -304 176 -304 144
WIRE -1104 192 -1136 192
WIRE -128 192 -160 192
WIRE -1280 272 -1280 256
WIRE -1136 272 -1136 192
WIRE -1056 272 -1056 208
WIRE -880 272 -880 208
WIRE -304 272 -304 256
WIRE -160 272 -160 192
WIRE -80 272 -80 208
WIRE 96 272 96 208
FLAG -80 272 0
FLAG -304 272 0
FLAG -160 272 0
FLAG -256 -112 0
FLAG 96 272 0
FLAG 224 48 sense2
FLAG -1056 272 0
FLAG -1280 272 0
FLAG -1136 272 0
FLAG -1232 -112 0
FLAG -880 272 0
FLAG -752 48 sense1
SYMBOL sw -80 224 M180
SYMATTR InstName S1
SYMATTR Value button
SYMBOL voltage -304 160 R0
WINDOW 3 -330 169 Left 2
WINDOW 123 0 0 Left 0
WINDOW 39 0 0 Left 0
SYMATTR Value PWL(0 0 1s 0 1.002s 1 1.004s 0 1.007s 1 1.009s 0 1.012s 1 1.015s 0 1.018s 1 1.020s 1 2s 1 2.002s 0 2.004s 1 2.007s 0 2.009s 1 2.012s 0 2.015s 1 2.018s 0 2.020s 0)
SYMATTR InstName V2
SYMBOL res -96 -112 R0
SYMATTR InstName R2
SYMATTR Value 10k
SYMBOL voltage -128 -160 R90
WINDOW 0 -32 56 VBottom 2
WINDOW 3 32 56 VTop 2
WINDOW 123 0 0 Left 0
WINDOW 39 0 0 Left 0
SYMATTR InstName V1
SYMATTR Value 3.3
SYMBOL cap 80 144 R0
SYMATTR InstName C1
SYMATTR Value 100n
SYMBOL res 64 32 R90
WINDOW 0 0 56 VBottom 2
WINDOW 3 32 56 VTop 2
SYMATTR InstName R1
SYMATTR Value 47k
SYMBOL sw -1056 224 M180
SYMATTR InstName S2
SYMATTR Value button
SYMBOL voltage -1280 160 R0
WINDOW 3 -330 169 Left 2
WINDOW 123 0 0 Left 0
WINDOW 39 0 0 Left 0
SYMATTR Value PULSE(0 1 1s 1n 1n 1 1 1)
SYMATTR InstName V3
SYMBOL res -1072 -112 R0
SYMATTR InstName R3
SYMATTR Value 10k
SYMBOL voltage -1104 -160 R90
WINDOW 0 -32 56 VBottom 2
WINDOW 3 32 56 VTop 2
WINDOW 123 0 0 Left 0
WINDOW 39 0 0 Left 0
SYMATTR InstName V4
SYMATTR Value 3.3
SYMBOL cap -896 144 R0
SYMATTR InstName C2
SYMATTR Value 100n
SYMBOL res -912 32 R90
WINDOW 0 0 56 VBottom 2
WINDOW 3 32 56 VTop 2
SYMATTR InstName R4
SYMATTR Value 47k
TEXT -640 400 Left 2 !.model button SW(Ron=1 Roff=1Meg Vt=0.5)
TEXT -640 360 Left 2 !.tran 0 3 0 10e-3
TEXT -1616 400 Left 2 !.model button SW(Ron=1 Roff=1Meg Vt=0.5)
