Version 4.1
SHEET 1 880 680
WIRE 304 32 80 32
WIRE 576 32 400 32
WIRE 752 32 576 32
WIRE 80 112 80 32
WIRE 576 112 576 32
WIRE 80 256 80 192
WIRE 576 256 576 192
WIRE 384 288 384 80
FLAG 80 256 0
FLAG 384 288 0
FLAG 576 256 0
FLAG 752 32 OUT
SYMBOL voltage 80 96 R0
WINDOW 3 -145 264 Left 2
WINDOW 123 0 0 Left 0
WINDOW 39 0 0 Left 0
SYMATTR Value SINE(0 6 0.5 1 0 0 2)
SYMATTR InstName V1
SYMBOL res 560 96 R0
SYMATTR InstName R1
SYMATTR Value 100
SYMBOL pmos 304 80 R270
SYMATTR InstName M1
SYMATTR Value DMP4047SK3
SYMATTR Prefix X
TEXT -72 392 Left 2 !.include models/DMP4047SK3.lib
TEXT -72 424 Left 2 !.tran 0 5 0 10E-3
