Version 4.1
SHEET 1 5172 1304
WIRE 4592 -160 3920 -160
WIRE 4976 -160 4592 -160
WIRE 3920 -128 3920 -160
WIRE 4592 -64 4592 -160
WIRE 3920 0 3920 -48
WIRE 4976 48 4976 -160
WIRE 5040 48 4976 48
WIRE 4976 96 4976 48
WIRE 4592 112 4592 16
WIRE 4592 112 4464 112
WIRE 4672 112 4592 112
WIRE 4816 112 4752 112
WIRE 4896 112 4896 16
WIRE 4896 112 4816 112
WIRE 4928 112 4896 112
WIRE 4816 160 4816 112
WIRE 4816 272 4816 224
WIRE 4976 272 4976 192
WIRE 4976 272 4816 272
WIRE 5088 272 4976 272
WIRE 5120 272 5088 272
WIRE 4592 288 4592 112
WIRE 4432 304 4384 304
WIRE 4544 304 4512 304
WIRE 4976 320 4976 272
WIRE 4384 336 4384 304
WIRE 5088 336 5088 272
WIRE 4544 352 4512 352
WIRE 4512 384 4512 352
WIRE 4976 432 4976 400
WIRE 5088 432 5088 400
WIRE 5088 432 4976 432
WIRE 4592 464 4592 368
WIRE 4976 464 4976 432
FLAG 3920 0 0
FLAG 4976 464 0
FLAG 4592 464 0
FLAG 4512 384 0
FLAG 4384 336 0
FLAG 4896 16 G2
FLAG 5040 48 S2
FLAG 5120 272 D2
FLAG 4464 112 CONTROL2
SYMBOL voltage 3920 -144 R0
WINDOW 123 0 0 Left 0
WINDOW 39 0 0 Left 0
WINDOW 3 -122 192 Left 2
SYMATTR Value SINE(0 6 0.25 1 0 0 2)
SYMATTR InstName V3
SYMBOL res 4960 304 R0
SYMATTR InstName R4
SYMATTR Value 1
SYMBOL sw 4592 384 M180
SYMATTR InstName S2
SYMATTR Value SlideSwitch2
SYMBOL voltage 4528 304 R90
WINDOW 0 -32 56 VBottom 2
WINDOW 3 66 198 VTop 2
WINDOW 123 0 0 Left 0
WINDOW 39 0 0 Left 0
SYMATTR InstName V4
SYMATTR Value PULSE(0 1 1 1n 1n 10 2 1)
SYMBOL res 4576 -80 R0
SYMATTR InstName R5
SYMATTR Value 100k
SYMBOL pmos 4928 192 M180
SYMATTR InstName M3
SYMATTR Value DMP4047SK3
SYMATTR Prefix X
SYMBOL cap 5072 336 R0
SYMATTR InstName C3
SYMATTR Value 2350µ
SYMBOL res 4768 96 R90
WINDOW 0 0 56 VBottom 2
WINDOW 3 32 56 VTop 2
SYMATTR InstName R6
SYMATTR Value 10k
SYMBOL cap 4800 160 R0
SYMATTR InstName C4
SYMATTR Value 0.1µ
TEXT 2888 624 Left 2 !.tran 0 8 0 1e-3
TEXT 4216 648 Left 2 !.model SlideSwitch2 SW(Ron=1 Roff=1Meg Vt=0.5)
TEXT 4216 568 Left 2 !.include models/DMP4047SK3.lib
